.subckt ParallelResistors n1 n2
R0 n1 n2 2kOhm
R1 n1 n2 4kOhm
R2 n1 n2 500Ohm
.ends ParallelResistors
X1 1 0 sub_circuit1
V1 1 0 5V

* This is a comment and I could decide
* which circuit I want to use.

* Vinput in 0 10V
* R1 in out 9kOhm